!*****************************************
! Dummy "mechanism" to represent 
! a simple 3species system for 
! n-decane non-reacting spray
! data culled from dodecane_lu mech 
!*****************************************


ELEMENTS
C H O N 
END

SPECIES
NC5H12 NC6H14 NC8H18 IC8H18 NC10H22 NC7H16 NC12H26 O2     N2 NC16H34 H2O CO2
END

TRANS ALL
NC5H12             2   458.182     5.445     0.000     0.000     1.000          
NC6H14             2   512.225     5.742     0.000     0.000     1.000          
NC8H18             2   613.127     6.250     0.000     0.000     1.000          
IC8H18             2   458.500     6.414     0.000     0.000     1.000          
NC10H22            2   704.917     6.675     0.000     0.000     1.000          
NC7H16             2   459.600     6.253     0.000     0.000     1.000          
NC12H26            2   789.980     7.047     0.000     0.000     1.000          
O2                 1   107.400     3.458     0.000     1.600     3.800          
N2                 1    97.530     3.621     0.000     1.760     4.000
NC16H34            2   650.000     8.350     0.000     0.000     1.000
H2O                2   572.400     2.605     1.844     0.000     4.000
CO2                1   244.000     3.763     0.000     2.650     2.100          
END

REACTIONS
END
