THERMO ALL
300.0 1000.0 5000.
NC6H14     1/ 2/ 7 THERMC   6H  14    0    0G   300.000  5000.000 1390.000    51
 1.89634117E+01 3.04480204E-02-1.03794829E-05 1.60775457E-09-9.31269728E-14    2
-3.01628739E+04-7.62839355E+01-9.69606184E-01 7.29085608E-02-4.38853919E-05    3
 1.32312807E-08-1.58437423E-12-2.27803862E+04 3.23069798E+01                   4
NC8H18     1/ 2/ 7 THERMC   8H  18    0    0G   300.000  5000.000 1391.000    71
 2.54710194E+01 3.90887037E-02-1.33038777E-05 2.05867527E-09-1.19167174E-13    2
-3.83962755E+04-1.08361094E+02-1.54218406E+00 9.78112063E-02-6.09318358E-05    3
 1.92005591E-08-2.42996250E-12-2.85395641E+04 3.83327978E+01                   4
IC8H18     7/20/ 0 THERMC   8H  18    0    0G   300.000  5000.000 1396.000    71
 2.71373590E+01 3.79004890E-02-1.29437358E-05 2.00760372E-09-1.16400580E-13    2
-4.07958177E+04-1.23277495E+02-4.20868893E+00 1.11440581E-01-7.91346582E-05    3
 2.92406242E-08-4.43743191E-12-2.99446875E+04 4.49521701E+01                   4
NC5H12     1/ 2/ 7 THERMC   5H  12    0    0G   300.000  5000.000 1390.000    41
 1.57257603E+01 2.61086045E-02-8.90970996E-06 1.38102248E-09-8.00296536E-14    2
-2.60519543E+04-6.03365457E+01-7.36766122E-01 6.07200973E-02-3.57592761E-05    3
 1.04907042E-08-1.21487315E-12-1.98934934E+04 2.95358287E+01                   4
NC7H16     7/19/ 0 THERMC   7H  16    0    0G   300.000  5000.000 1391.000    61   
 2.22148969E+01 3.47675750E-02-1.18407129E-05 1.83298478E-09-1.06130266E-13    2    
-3.42760081E+04-9.23040196E+01-1.26836187E+00 8.54355820E-02-5.25346786E-05    3    
 1.62945721E-08-2.02394925E-12-2.56586565E+04 3.53732912E+01                   4
NC10H22    1/ 2/ 7 THERMC  10H  22    0    0G   300.000  5000.000 1391.000    91
 3.19882239E+01 4.77244922E-02-1.62276391E-05 2.50963259E-09-1.45215772E-13    2
-4.66392840E+04-1.40504121E+02-2.08416969E+00 1.22535012E-01-7.76815739E-05    3
 2.49834877E-08-3.23548038E-12-3.43021863E+04 4.42260140E+01                   4
NC12H26    1/ 2/ 7 THERMC  12H  26    0    0G   300.000  5000.000 1391.000    11
 3.85095037E+01 5.63550048E-02-1.91493200E-05 2.96024862E-09-1.71244150E-13    2
-5.48843465E+04-1.72670922E+02-2.62181594E+00 1.47237711E-01-9.43970271E-05    3
 3.07441268E-08-4.03602230E-12-4.00654253E+04 5.00994626E+01                   4
H                 120186H   1               G  0300.00   5000.00  1000.00      1
 2.50000000E+00 0.00000000E+00 0.00000000E+00 0.00000000E+00 0.00000000E+00    2
 2.54716270E+04-4.60117638E-01 2.50000000E+00 0.00000000E+00 0.00000000E+00    3
 0.00000000E+00 0.00000000E+00 2.54716270E+04-4.60117608E-01                   4
O                 120186O   1               G  0300.00   5000.00  1000.00      1
 2.54205966E+00-2.75506191E-05-3.10280335E-09 4.55106742E-12-4.36805150E-16    2
 2.92308027E+04 4.92030811E+00 2.94642878E+00-1.63816649E-03 2.42103170E-06    3
-1.60284319E-09 3.89069636E-13 2.91476445E+04 2.96399498E+00                   4
OH                S 9/01O   1H   1    0    0G   200.000  6000.000 1000.        1
 2.86472886E+00 1.05650448E-03-2.59082758E-07 3.05218674E-11-1.33195876E-15    2
 3.68362875E+03 5.70164073E+00 4.12530561E+00-3.22544939E-03 6.52764691E-06    3
-5.79853643E-09 2.06237379E-12 3.34630913E+03-6.90432960E-01 4.51532273E+03    4
H2                121286H   2               G  0300.00   5000.00  1000.00      1
 2.99142337E+00 7.00064411E-04-5.63382869E-08-9.23157818E-12 1.58275179E-15    2
-8.35033997E+02-1.35511017E+00 3.29812431E+00 8.24944174E-04-8.14301529E-07    3
-9.47543433E-11 4.13487224E-13-1.01252087E+03-3.29409409E+00                   4
O2                TPIS89O   2   00   00   00G   200.000  3500.000  1000.000    1
 3.28253784E+00 1.48308754E-03-7.57966669E-07 2.09470555E-10-2.16717794E-14    2
-1.08845772E+03 5.45323129E+00 3.78245636E+00-2.99673416E-03 9.84730201E-06    3
-9.68129509E-09 3.24372837E-12-1.06394356E+03 3.65767573E+00                   4
H2O                20387H   2O   1          G  0300.00   5000.00  1000.00      1
 2.67214561E+00 3.05629289E-03-8.73026011E-07 1.20099639E-10-6.39161787E-15    2
-2.98992090E+04 6.86281681E+00 3.38684249E+00 3.47498246E-03-6.35469633E-06    3
 6.96858127E-09-2.50658847E-12-3.02081133E+04 2.59023285E+00                   4
HO2               L 5/89H   1O   2   00   00G   200.000  3500.000  1000.000    1
 4.01721090E+00 2.23982013E-03-6.33658150E-07 1.14246370E-10-1.07908535E-14    2
 1.11856713E+02 3.78510215E+00 4.30179801E+00-4.74912051E-03 2.11582891E-05    3
-2.42763894E-08 9.29225124E-12 2.94808040E+02 3.71666245E+00 1.00021620E+04    4
CO2               L 7/88C   1O   2   00   00G   200.000  3500.000  1000.000    1
 3.85746029E+00 4.41437026E-03-2.21481404E-06 5.23490188E-10-4.72084164E-14    2
-4.87591660E+04 2.27163806E+00 2.35677352E+00 8.98459677E-03-7.12356269E-06    3
 2.45919022E-09-1.43699548E-13-4.83719697E+04 9.90105222E+00                   4
H2O2              120186H   2O   2          G  0300.00   5000.00  1000.00      1
 4.57316685E+00 4.33613639E-03-1.47468882E-06 2.34890357E-10-1.43165356E-14    2
-1.80069609E+04 5.01136959E-01 3.38875365E+00 6.56922581E-03-1.48501258E-07    3
-4.62580552E-09 2.47151475E-12-1.76631465E+04 6.78536320E+00                   4
N2                121286N   2               G  0300.00   5000.00  1000.00      1
 0.02926640E+02 0.01487977E-01-0.05684761E-05 0.01009704E-08-0.06753351E-13    2
-0.09227977E+04 0.05980528E+02 0.03298677E+02 0.01408240E-01-0.03963222E-04    3
 0.05641515E-07-0.02444855E-10-0.01020900E+05 0.03950372E+02                   4
NC16H34                 C  16H  34          G    300.00   3500.00 1800.00      1
 4.98210237e+01 7.73881688e-02-2.77557896e-05 4.69678103e-09-3.12959243e-13    2
-7.08514663e+04-2.24842855e+02-3.64057977e+00 1.96191732e-01-1.26758759e-04    3
 4.13645475e-08-5.40570458e-12-5.16052891e+04 6.45024954e+01                   4
END
